RDA2
A
2
131585
66560
1026
1
4105
10
.Traceback
254
1026
1
4105
16
ch5researchstudy
787
1
14
168
38.9792
36.3175
54.0458
35.7415
50.7223
37.4734
37.1376
32.263
38.0204
33.1334
34.1698
37.1038
33.231
38.2114
43.5664
39.9527
49.8617
35.6926
36.3656
35.1803
41.1531
30.6122
41.4444
27.2936
35.3247
40.0541
38.888
55.5354
44.6565
39.1304
42.2002
27.5441
30.7081
36.0695
31.0986
40.4781
35.5563
40.4577
33.8611
37.3419
38.4507
28.7565
29.071
34.8896
45.8151
31.7136
39.8438
26.2668
33.7238
45.0592
33.0798
29.7237
44.3946
41.7765
49.6492
34.8695
41.411
29.9918
39.2221
29.9382
47.8307
38.4131
38.8847
30.4965
29.4645
30.9583
41.3245
35.1771
29.4493
41.4184
36.3229
38.3592
46.3822
38.8096
38.5832
31.6059
36.2955
48.2897
34.5126
35.4895
20.2234
29.5514
24.9752
44.2682
37.0426
53.0815
32.243
35.7695
42.3711
41.2247
32.7333
33.7079
26.1829
31.9663
35.6744
35.2908
39.7993
38.0435
15.9249
33.8666
41.6923
40.6915
44.3303
32.9567
35.093
42.1699
37.389
45.2788
34.2496
20.8034
32.4348
31.0222
38.1878
39.4004
42.9763
33.3223
39.249
29.3366
31.7451
28.1639
37.8454
25.0693
41.8927
44.2751
33.9534
36.0656
33.5081
34.8713
41.6422
46.2211
43.793
38.0981
34.3126
47.6282
57.8475
42.123
41.1155
34.1118
41.2931
45.5093
35.7134
30.9932
37.8814
26.1607
32.8638
46.9745
31.2672
41.2952
28.3523
32.276
24.0614
41.53
37.561
43.7449
40.2917
40.1224
26.7912
40.2491
25.527
45.8271
35.4952
42.5975
34.8629
35.1989
29.3399
37.8889
33.1142
36.5795
1026
1
4105
5
names
16
1
9
3
pcf
1026
1
4105
9
row.names
16
168
9
1
1
9
1
2
9
1
3
9
1
4
9
1
5
9
1
6
9
1
7
9
1
8
9
1
9
9
2
10
9
2
11
9
2
12
9
2
13
9
2
14
9
2
15
9
2
16
9
2
17
9
2
18
9
2
19
9
2
20
9
2
21
9
2
22
9
2
23
9
2
24
9
2
25
9
2
26
9
2
27
9
2
28
9
2
29
9
2
30
9
2
31
9
2
32
9
2
33
9
2
34
9
2
35
9
2
36
9
2
37
9
2
38
9
2
39
9
2
40
9
2
41
9
2
42
9
2
43
9
2
44
9
2
45
9
2
46
9
2
47
9
2
48
9
2
49
9
2
50
9
2
51
9
2
52
9
2
53
9
2
54
9
2
55
9
2
56
9
2
57
9
2
58
9
2
59
9
2
60
9
2
61
9
2
62
9
2
63
9
2
64
9
2
65
9
2
66
9
2
67
9
2
68
9
2
69
9
2
70
9
2
71
9
2
72
9
2
73
9
2
74
9
2
75
9
2
76
9
2
77
9
2
78
9
2
79
9
2
80
9
2
81
9
2
82
9
2
83
9
2
84
9
2
85
9
2
86
9
2
87
9
2
88
9
2
89
9
2
90
9
2
91
9
2
92
9
2
93
9
2
94
9
2
95
9
2
96
9
2
97
9
2
98
9
2
99
9
3
100
9
3
101
9
3
102
9
3
103
9
3
104
9
3
105
9
3
106
9
3
107
9
3
108
9
3
109
9
3
110
9
3
111
9
3
112
9
3
113
9
3
114
9
3
115
9
3
116
9
3
117
9
3
118
9
3
119
9
3
120
9
3
121
9
3
122
9
3
123
9
3
124
9
3
125
9
3
126
9
3
127
9
3
128
9
3
129
9
3
130
9
3
131
9
3
132
9
3
133
9
3
134
9
3
135
9
3
136
9
3
137
9
3
138
9
3
139
9
3
140
9
3
141
9
3
142
9
3
143
9
3
144
9
3
145
9
3
146
9
3
147
9
3
148
9
3
149
9
3
150
9
3
151
9
3
152
9
3
153
9
3
154
9
3
155
9
3
156
9
3
157
9
3
158
9
3
159
9
3
160
9
3
161
9
3
162
9
3
163
9
3
164
9
3
165
9
3
166
9
3
167
9
3
168
1026
1
4105
5
class
16
1
9
10
data.frame
254
254
254
254
254
254
254
